onBus32_WINDSOR.m
function mpc = onBus32_WINDSOR
% These data are collected from:
% C. Su and C. Lee, "network reconfiguration of distribution systems
% using improved mixed integer hybrid differential evolution," IEEE Trans. Power Del., vol. 18, no. 3, July 2003
%% MATPOWER Case Format : Version 2
mpc.version = '2';
%%-----  Power Flow Data  -----%%
%% system MVA base
mpc.baseMVA = 100;
%% bus data
%	bus_i	type	Pd	Qd	Gs	Bs	area	Vm	Va	baseKV	zone	Vmax	Vmin
mpc.bus = [
1	3	0	0	0	0	1	1	0	11.4	1	1.05	0.95
2	1	0	0	0	0	1	1	0	11.4	1	1.05	0.95
3	1	0.506	0.253	0	0	1	1	0	11.4	1	1.05	0.95
4	1	1.518	1.012	0	0	1	1	0	11.4	1	1.05	0.95
5	1	1.771	1.265	0	0	1	1	0	11.4	1	1.05	0.95
6	1	1.1132	0.506	0	0	1	1	0	11.4	1	1.05	0.95
7	1	5.566	4.048	0	0	1	1	0	11.4	1	1.05	0.95
8	1	2.024	1.6192	0	0	1	1	0	11.4	1	1.05	0.95
9	1	1.518	1.012	0	0	1	1	0	11.4	1	1.05	0.95
10	1	1.518	1.1638	0	0	1	1	0	11.4	1	1.05	0.95
11	1	1.518	1.3156	0	0	1	1	0	11.4	1	1.05	0.95
12	1	0	0	0	0	1	1	0	11.4	1	1.05	0.95
13	1	6.072	4.048	0	0	1	1	0	11.4	1	1.05	0.95
14	1	4.048	3.036	0	0	1	1	0	11.4	1	1.05	0.95
15	1	3.542	2.53	0	0	1	1	0	11.4	1	1.05	0.95
16	1	0	0	0	0	1	1	0	11.4	1	1.05	0.95
17	1	1.518	0.759	0	0	1	1	0	11.4	1	1.05	0.95
18	1	2.53	1.771	0	0	1	1	0	11.4	1	1.05	0.95
19	1	3.542	2.024	0	0	1	1	0	11.4	1	1.05	0.95
20	1	6.072	5.06	0	0	1	1	0	11.4	1	1.05	0.95
21	1	1.518	1.518	0	0	1	1	0	11.4	1	1.05	0.95
22	1	2.024	1.771	0	0	1	1	0	11.4	1	1.05	0.95
23	1	0.253	0.1012	0	0	1	1	0	11.4	1	1.05	0.95
24	1	0.253	0.1012	0	0	1	1	0	11.4	1	1.05	0.95
25	1	0.253	0.0506	0	0	1	1	0	11.4	1	1.05	0.95
26	1	0.253	0.1518	0	0	1	1	0	11.4	1	1.05	0.95
27	1	0.506	0.3036	0	0	1	1	0	11.4	1	1.05	0.95
28	1	0.506	0.3542	0	0	1	1	0	11.4	1	1.05	0.95
29	1	9.108	6.578	0	0	1	1	0	11.4	1	1.05	0.95
30	1	1.012	0.6072	0	0	1	1	0	11.4	1	1.05	0.95
31	1	0	0	0	0	1	1	0	11.4	1	1.05	0.95
32	1	9.108	8.096	0	0	1	1	0	11.4	1	1.05	0.95
33	1	1.012	0.759	0	0	1	1	0	11.4	1	1.05	0.95
34	1	1.012	0.506	0	0	1	1	0	11.4	1	1.05	0.95
35	1	4.048	3.036	0	0	1	1	0	11.4	1	1.05	0.95
36	1	0.506	0.3036	0	0	1	1	0	11.4	1	1.05	0.95
37	1	0.506	0.3036	0	0	1	1	0	11.4	1	1.05	0.95
38	1	0.1012	0.0506	0	0	1	1	0	11.4	1	1.05	0.95
39	1	0.1012	0.0506	0	0	1	1	0	11.4	1	1.05	0.95
40	1	0.1012	0.0506	0	0	1	1	0	11.4	1	1.05	0.95
41	1	0.1012	0.0506	0	0	1	1	0	11.4	1	1.05	0.95
42	1	1.012	0.8096	0	0	1	1	0	11.4	1	1.05	0.95
43	1	0.253	0.1518	0	0	1	1	0	11.4	1	1.05	0.95
44	1	0	0	0	0	1	1	0	11.4	1	1.05	0.95
45	1	0.1518	0.1012	0	0	1	1	0	11.4	1	1.05	0.95
46	1	4.048	3.542	0	0	1	1	0	11.4	1	1.05	0.95
47	1	1.012	0.759	0	0	1	1	0	11.4	1	1.05	0.95
48	1	0	0	0	0	1	1	0	11.4	1	1.05	0.95
49	1	0	0	0	0	1	1	0	11.4	1	1.05	0.95
50	1	0	0	0	0	1	1	0	11.4	1	1.05	0.95
51	1	1.012	0.8096	0	0	1	1	0	11.4	1	1.05	0.95
52	1	4.048	3.036	0	0	1	1	0	11.4	1	1.05	0.95
53	1	2.53	1.518	0	0	1	1	0	11.4	1	1.05	0.95
54	1	2.53	1.771	0	0	1	1	0	11.4	1	1.05	0.95
55	1	2.53	1.518	0	0	1	1	0	11.4	1	1.05	0.95
56	1	1.012	0.4048	0	0	1	1	0	11.4	1	1.05	0.95
57	1	0	0	0	0	1	1	0	11.4	1	1.05	0.95
58	1	0.1518	0.1012	0	0	1	1	0	11.4	1	1.05	0.95
59	1	3.036	2.1252	0	0	1	1	0	11.4	1	1.05	0.95
60	1	0	0	0	0	1	1	0	11.4	1	1.05	0.95
61	1	0.1012	0.0506	0	0	1	1	0	11.4	1	1.05	0.95
62	1	0.1012	0.0506	0	0	1	1	0	11.4	1	1.05	0.95
63	1	1.012	0.6578	0	0	1	1	0	11.4	1	1.05	0.95
64	1	1.518	1.2144	0	0	1	1	0	11.4	1	1.05	0.95
65	1	1.518	1.012	0	0	1	1	0	11.4	1	1.05	0.95
66	1	0	0	0	0	1	1	0	11.4	1	1.05	0.95
67	1	0.253	0.1518	0	0	1	1	0	11.4	1	1.05	0.95
68	1	0	0	0	0	1	1	0	11.4	1	1.05	0.95
69	1	2.024	1.8216	0	0	1	1	0	11.4	1	1.05	0.95
70	1	0	0	0	0	1	1	0	11.4	1	1.05	0.95
71	1	0	0	0	0	1	1	0	11.4	1	1.05	0.95
72	1	10.12	7.59	0	0	1	1	0	11.4	1	1.05	0.95
73	1	1.012	0.759	0	0	1	1	0	11.4	1	1.05	0.95
74	1	0	0	0	0	1	1	0	11.4	1	1.05	0.95
75	1	0	0	0	0	1	1	0	11.4	1	1.05	0.95
76	1	6.072	4.807	0	0	1	1	0	11.4	1	1.05	0.95
77	1	1.518	0.9108	0	0	1	1	0	11.4	1	1.05	0.95
78	1	0	0	0	0	1	1	0	11.4	1	1.05	0.95
79	1	2.024	1.8216	0	0	1	1	0	11.4	1	1.05	0.95
80	1	10.12	6.578	0	0	1	1	0	11.4	1	1.05	0.95
81	1	1.012	0.7084	0	0	1	1	0	11.4	1	1.05	0.95
82	1	2.53	1.8216	0	0	1	1	0	11.4	1	1.05	0.95
83	1	0.506	0.1518	0	0	1	1	0	11.4	1	1.05	0.95
84	1	2.024	1.8216	0	0	1	1	0	11.4	1	1.05	0.95
];

%% generator data
%	bus	Pg	Qg	Qmax	Qmin	Vg	mBase	status	Pmax	Pmin	Pc1	Pc2	Qc1min	Qc1max	Qc2min	Qc2max	ramp_agc	ramp_10	ramp_30	ramp_q	apf
mpc.gen = [
	43	0	0	100	2.0	1	100	1	24	0	0	0	0	0	0	0	0	0	0	0	0;
    56	0	0	140	1.6	1	100	1	18	0	0	0	0	0	0	0	0	0	0	0	0;
];
mpc.gasgen = [
	22	0	0	0	0	1	100	1	18	0	0	0	0	0	0	0	0	0	0	0	0;
    65	0	0	0	0	1	100	1	10	0	0	0	0	0	0	0	0	0	0	0	0;   
];
%	bus	Emax	Emin	Qmax	Qmin	Vg	mBase	status	Pmax	Pmin	Pc1	Pc2	Qc1min	Qc1max	Qc2min	Qc2max	ramp_agc	ramp_10	ramp_30	ramp_q	apf
mpc.battery = [
    41	20	0	0	0	1	100	1	5	0	0	0	0	0	0	0	0	0	0	0	0;
];

%% branch data
%	fbus	tbus	r	x	b	rateA	rateB	rateC	ratio	angle	status	angmin	angmax
mpc.branch = [
1	2	0.001495845	0.005096953	0	100	100	100	0	0	1	-360	360
2	3	0.001612804	0.003311788	0	100	100	100	0	0	1	-360	360
3	4	0.001814404	0.003725762	0	100	100	100	0	0	1	-360	360
4	5	0.000705602	0.001448907	0	100	100	100	0	0	1	-360	360
5	6	0.001612804	0.003311788	0	100	100	100	0	0	1	-360	360
6	7	0.000302401	0.00062096	0	100	100	100	0	0	1	-360	360
7	8	0.000311634	0.001061865	0	100	100	100	0	0	1	-360	360
8	9	0.000806402	0.001655894	0	100	100	100	0	0	1	-360	360
8	10	0.001814404	0.003725762	0	100	100	100	0	0	1	-360	360
8	11	0.000806402	0.001655894	0	100	100	100	0	0	1	-360	360
1	12	0.000604801	0.001241921	0	100	100	100	0	0	1	-360	360
12	13	0.002620806	0.005343183	0	100	100	100	0	0	1	-360	360
13	14	0.0002016	0.000413974	0	100	100	100	0	0	1	-360	360
13	15	0.000604801	0.001241921	0	100	100	100	0	0	1	-360	360
1	16	0.000872576	0.002973223	0	100	100	100	0	0	1	-360	360
16	17	0.000403201	0.000827947	0	100	100	100	0	0	1	-360	360
17	18	0.000403201	0.000827947	0	100	100	100	0	0	1	-360	360
18	19	0.001209603	0.002483841	0	100	100	100	0	0	1	-360	360
19	20	0.000302401	0.00062096	0	100	100	100	0	0	1	-360	360
20	21	0.001310403	0.002690828	0	100	100	100	0	0	1	-360	360
21	22	0.001814404	0.003725762	0	100	100	100	0	0	1	-360	360
22	23	0.001209603	0.002483841	0	100	100	100	0	0	1	-360	360
22	24	0.001512004	0.003104801	0	100	100	100	0	0	1	-360	360
24	25	0.001008002	0.002069868	0	100	100	100	0	0	1	-360	360
1	26	0.000436288	0.001486611	0	100	100	100	0	0	1	-360	360
26	27	0.000806402	0.001655894	0	100	100	100	0	0	1	-360	360
27	28	0.001915205	0.003932749	0	100	100	100	0	0	1	-360	360
28	29	0.000373961	0.001274238	0	100	100	100	0	0	1	-360	360
29	30	0.001008002	0.002069868	0	100	100	100	0	0	1	-360	360
1	31	0.001512004	0.003047091	0	100	100	100	0	0	1	-360	360
31	32	0.001008002	0.002069868	0	100	100	100	0	0	1	-360	360
32	33	0.001008002	0.002069868	0	100	100	100	0	0	1	-360	360
33	34	0.0002016	0.000413974	0	100	100	100	0	0	1	-360	360
34	35	0.001310403	0.002690828	0	100	100	100	0	0	1	-360	360
35	36	0.000403201	0.000827947	0	100	100	100	0	0	1	-360	360
36	37	0.003830409	0.007865497	0	100	100	100	0	0	1	-360	360
37	38	0.000302401	0.00062096	0	100	100	100	0	0	1	-360	360
38	39	0.000302401	0.00062096	0	100	100	100	0	0	1	-360	360
39	40	0.000604801	0.001241921	0	100	100	100	0	0	1	-360	360
40	41	0.001612804	0.003311788	0	100	100	100	0	0	1	-360	360
39	42	0.001512004	0.003104801	0	100	100	100	0	0	1	-360	360
42	43	0.001612804	0.003311788	0	100	100	100	0	0	1	-360	360
1	44	0.000373961	0.001274238	0	100	100	100	0	0	1	-360	360
44	45	0.000302401	0.00062096	0	100	100	100	0	0	1	-360	360
45	46	0.001008002	0.002069868	0	100	100	100	0	0	1	-360	360
46	47	0.001814404	0.003725762	0	100	100	100	0	0	1	-360	360
1	48	0.001869806	0.006371191	0	100	100	100	0	0	1	-360	360
48	49	0.000504001	0.001034934	0	100	100	100	0	0	1	-360	360
49	50	0.000504001	0.001034934	0	100	100	100	0	0	1	-360	360
50	51	0.000302401	0.00062096	0	100	100	100	0	0	1	-360	360
51	52	0.000604801	0.001241921	0	100	100	100	0	0	1	-360	360
52	53	0.000302401	0.00062096	0	100	100	100	0	0	1	-360	360
53	54	0.000604801	0.001241921	0	100	100	100	0	0	1	-360	360
54	55	0.000403201	0.000827947	0	100	100	100	0	0	1	-360	360
55	56	0.001008002	0.002069868	0	100	100	100	0	0	1	-360	360
1	57	0.001745152	0.005946445	0	100	100	100	0	0	1	-360	360
57	58	0.00413281	0.008486457	0	100	100	100	0	0	1	-360	360
58	59	0.000403201	0.000827947	0	100	100	100	0	0	1	-360	360
59	60	0.000311634	0.001061865	0	100	100	100	0	0	1	-360	360
60	61	0.000302401	0.00062096	0	100	100	100	0	0	1	-360	360
61	62	0.0002016	0.000413974	0	100	100	100	0	0	1	-360	360
62	63	0.000806402	0.001655894	0	100	100	100	0	0	1	-360	360
63	64	0.001814404	0.003725762	0	100	100	100	0	0	1	-360	360
64	65	0.000186981	0.000637119	0	100	100	100	0	0	1	-360	360
1	66	0.000373961	0.001274238	0	100	100	100	0	0	1	-360	360
66	67	0.001310403	0.002690828	0	100	100	100	0	0	1	-360	360
67	68	0.000934903	0.003185596	0	100	100	100	0	0	1	-360	360
68	69	0.001682825	0.005734072	0	100	100	100	0	0	1	-360	360
69	70	0.000373961	0.001274238	0	100	100	100	0	0	1	-360	360
70	71	0.000560942	0.001911357	0	100	100	100	0	0	1	-360	360
71	72	0.000436288	0.001486611	0	100	100	100	0	0	1	-360	360
72	73	0.0002016	0.000406279	0	100	100	100	0	0	1	-360	360
1	74	0.002493075	0.008494922	0	100	100	100	0	0	1	-360	360
74	75	0.000249307	0.000849492	0	100	100	100	0	0	1	-360	360
75	76	0.000436288	0.001486611	0	100	100	100	0	0	1	-360	360
76	77	0.000373961	0.001274238	0	100	100	100	0	0	1	-360	360
1	78	0.001932133	0.006583564	0	100	100	100	0	0	1	-360	360
78	79	0.00099723	0.003397969	0	100	100	100	0	0	1	-360	360
79	80	0.000373961	0.001274238	0	100	100	100	0	0	1	-360	360
80	81	0.001008002	0.002031394	0	100	100	100	0	0	1	-360	360
81	82	0.001008002	0.002031394	0	100	100	100	0	0	1	-360	360
82	83	0.000705602	0.001448907	0	100	100	100	0	0	1	-360	360
83	84	0.002419206	0.004967682	0	100	100	100	0	0	1	-360	360
];
%%-----  OPF Data  -----%%
%% generator cost data
%	1	startup	shutdown	n	x1	y1	...	xn	yn 
%	2	startup	shutdown	n	c(n-1)	...	c0 
mpc.gencost = [
	2	0	0	3	0.025	50	0;
	2	0	0	3	0.025	60	0;
    2	0	0	3	0.05	5	0;
];   
%% number
mpc.nBus = size(mpc.bus,1);
mpc.nBranch = size(mpc.branch,1);
mpc.nDgen = size(mpc.gen,1);
mpc.nGtur = size(mpc.gasgen,1);
mpc.nBatr = size(mpc.battery,1);
%% elec load curve
mpc.loadcurve = [266.32
254.85
262.35
269.96
271.48
257.48
248.28
247.74
255.38
251.25
255.58
248.71
262.94
265.88
263.49
258.23
256.32
251.39
254.78
263.88
258.65
246.51
243.44
249
];

mpc.loadcurve = mpc.loadcurve/(max(mpc.loadcurve));%Normalized to take the shape of its load curve
